*Heading
** Job name: Job-1 Model name: Model-1
** Generated by: Abaqus/CAE Learning Edition 2025
*Preprint, echo=NO, model=NO, history=NO, contact=NO
**
** PARTS
**
*Part, name=Part-1
*End Part
**  
**
** ASSEMBLY
**
*Assembly, name=Assembly
**  
*Instance, name=Part-1-1, part=Part-1
*Node
      1,           0.,          10.
      2, -0.00249999994,          10.
      3, -0.00499999989,   10.0051908
      4, -0.00249999994,   10.0100002
      5, -0.00499999989,   10.0151911
      6, -0.00249999994,   10.0200005
      7,           0.,   10.0200005
      8, 0.00249999994,   10.0200005
      9, 0.00499999989,   10.0251913
     10, 0.00249999994,   10.0299997
     11,           0.,   10.0299997
     12, -0.00249999994,   10.0299997
     13, -0.00499999989,   10.0251913
     14, 0.00249999994,          10.
     15, -0.00499999989,   9.99519157
     16,           0.,   10.0100002
     17, 0.00499999989,   10.0151911
     18, 0.00749999983,   10.0299997
     19, 0.00749999983,   10.0200005
     20, 0.00999999978,   10.0200005
** ... 128 like lines cut
*Element, type=B21
1, 2, 1
2, 3, 2
3, 4, 3
4, 5, 4
5, 6, 5
6, 6, 7
7, 7, 8
8, 9, 8
 9, 10,  9
10, 11, 10
11, 12, 11
12, 12, 13
13, 13,  6
14,  1, 14
15,  2, 15
16,  4, 16
17,  8, 17
18, 18,  9
19,  9, 19
20, 19, 20
** ... 180 like lines cut
*Nset, nset=Set-1, generate
   1,  148,    1
*Elset, elset=Set-1, generate
   1,  200,    1
*Nset, nset=Set-2, generate
   1,  148,    1
*Elset, elset=Set-2, generate
   1,  200,    1
** Section: Beam section  Profile: Profile-1
*Beam Section, elset=Set-1, material=steel, temperature=GRADIENTS, section=CIRC
0.001
0.,0.,-1.
*End Instance
**  
*Nset, nset=Set-1, instance=Part-1-1
  27,  31,  32,  38,  39,  49,  57,  58,  73,  74,  91,  92, 109, 110, 127, 128
*Elset, elset=Set-1, instance=Part-1-1
  36,  43,  59,  72,  93, 118, 143, 168
*Nset, nset=Set-2, instance=Part-1-1
  10,  12,  18,  23,  47,  68,  83,  85, 101, 103, 119, 121, 137, 139, 145, 147
*End Assembly
** 
** MATERIALS
** 
*Material, name=steel
*Elastic
 2e+11, 0.3
** ----------------------------------------------------------------
** 
** STEP: Step-1
** 
*Step, name=Step-1, nlgeom=NO
*Static
1., 1., 1e-05, 1.
** 
** BOUNDARY CONDITIONS
** 
** Name: BC-1 Type: Displacement/Rotation
*Boundary
Set-1, 1, 1
Set-1, 2, 2
Set-1, 6, 6
** 
** LOADS
** 
** Name: Load-1   Type: Concentrated force
*Cload
Set-2, 2, -3200.
** 
** OUTPUT REQUESTS
** 
*Restart, write, frequency=0
** 
** FIELD OUTPUT: F-Output-1
** 
*Output, field, variable=PRESELECT
** 
** HISTORY OUTPUT: H-Output-1
** 
*Output, history, variable=PRESELECT
*End Step
