*Heading
** Job name: LatticeJob Model name: LatticeModel
** Generated by: Abaqus/CAE Learning Edition 2025
*Preprint, echo=NO, model=NO, history=NO, contact=NO
**
** PARTS
**
*Part, name=Part-1
*End Part
**  
**
** ASSEMBLY
**
*Assembly, name=Assembly
**  
*Instance, name=Part-1-1, part=Part-1
*Node
      1, -0.00499999989,   9.99499989
      2, -0.00249999994,          10.
      3, 0.00249999994,          10.
      4, 0.00499999989,   10.0050001
      5, 0.00249999994,   10.0100002
      6, -0.00249999994,   10.0100002
      7, -0.00499999989,   10.0150003
      8, -0.00249999994,   10.0200005
      9, 0.00249999994,   10.0200005
     10, 0.00499999989,   10.0249996
     11, 0.00249999994,   10.0299997
     12, -0.00249999994,   10.0299997
     13, -0.00499999989,   10.0249996
     14, -0.00249999994,   9.98999977
     15, -0.00499999989,   10.0050001
     16, 0.00499999989,   9.99499989
     17, 0.00749999983,   10.0100002
     18, 0.0125000002,   10.0100002
     19, 0.0149999997,   10.0150003
     20, 0.0125000002,   10.0200005
** ... 96 like lines cut
*Element, type=B21
1, 1, 2
2, 2, 3
3, 4, 3
4, 4, 5
5, 6, 5
6, 7, 6
7, 7, 8
8, 8, 9
 9, 10,  9
10, 10, 11
11, 12, 11
12, 13, 12
13, 13,  8
14,  1, 14
15, 15,  2
16, 16,  3
17,  4, 17
18, 17, 18
19, 19, 18
20, 19, 20
** ... 148 like lines cut
*Nset, nset=AllEdges, generate
   1,  116,    1
*Elset, elset=AllEdges, generate
   1,  168,    1
** Section: BeamSection  Profile: BeamProfile
*Beam Section, elset=AllEdges, material=Steel, temperature=GRADIENTS, section=CIRC
0.001
0.,0.,-1.
*End Instance
**  
*Nset, nset=LoadNodes, instance=Part-1-1
  11,  12,  23,  34,  35,  37,  47,  48,  60,  61,  74,  75,  88,  89, 102, 103
*Nset, nset=SupportNodes, instance=Part-1-1
  14,  24,  28,  29,  41,  42,  55,  56,  69,  70,  83,  84,  97,  98, 111, 112
*End Assembly
** 
** MATERIALS
** 
*Material, name=Steel
*Elastic
 2e+11, 0.3
** ----------------------------------------------------------------
** 
** STEP: Step-1
** 
*Step, name=Step-1, nlgeom=NO
*Static
1., 1., 1e-05, 1.
** 
** BOUNDARY CONDITIONS
** 
** Name: FixedSupport Type: Displacement/Rotation
*Boundary
SupportNodes, 1, 1
SupportNodes, 2, 2
SupportNodes, 6, 6
** 
** LOADS
** 
** Name: VerticalLoad   Type: Concentrated force
*Cload
LoadNodes, 2, -3200.
** 
** OUTPUT REQUESTS
** 
*Restart, write, frequency=0
** 
** FIELD OUTPUT: F-Output-1
** 
*Output, field, variable=PRESELECT
** 
** HISTORY OUTPUT: H-Output-1
** 
*Output, history, variable=PRESELECT
*End Step
